24
(xyz format) generated by MAT-TOOL.
C                 0.02300000     1.33450000    -0.01340000
C                 0.79580000     0.00230000    -0.00630000
C                 2.33580000     0.00490000    -0.00070000
C                 3.10340000     1.34000000     0.00150000
C                 2.33080000     2.67220000    -0.00080000
C                 0.79080000     2.66930000    -0.00590000
O                -1.48700000     1.33230000    -0.00640000
H                 0.22770000    -0.98600000    -0.00530000
H                 2.90750000    -0.98140000     0.00230000
H                 4.24340000     1.34210000     0.00530000
H                 2.89890000     3.66060000     0.00300000
H                 0.21910000     3.65560000    -0.00460000
C                -4.47699725     1.32751729    -0.01461387
C                -5.24979725     2.65971729    -0.00751387
C                -6.78979725     2.65711729    -0.00191387
C                -7.55739725     1.32201729     0.00028613
C                -6.78479725    -0.01018271    -0.00201387
C                -5.24479725    -0.00728271    -0.00711387
O                -2.96699725     1.32971729    -0.00761387
H                -4.68169725     3.64801729    -0.00651387
H                -7.36149725     3.64341729     0.00108613
H                -8.69739725     1.31991729     0.00408613
H                -7.35289725    -0.99858271     0.00178613
H                -4.67309725    -0.99358271    -0.00581387
