3D Atomistic
  MatStudio         3D                             0

 13 12  0  0  0  0  0  0  0  0999 V2000
   -3.4757    0.0944    0.0051 C   0  0  0  0  0  0  0  0  0  0  #connect site
   -2.7357    1.0106    0.9972 C   0  0  0  0  0  0  0  0  0  0
   -1.6841    0.1891    1.7656 C   0  0  0  0  0  0  0  0  0  0
   -0.9350    1.1076    2.7487 C   0  0  0  0  0  0  0  0  0  0
   -3.9969   -0.7429    0.5768 H   0  0  0  0  0  0  0  0  0  0
   -2.7263   -0.3545   -0.7277 H   0  0  0  0  0  0  0  0  0  0
   -3.4819    1.4581    1.7339 H   0  0  0  0  0  0  0  0  0  0
   -2.2176    1.8492    0.4247 H   0  0  0  0  0  0  0  0  0  0
   -0.9419   -0.2632    1.0280 H   0  0  0  0  0  0  0  0  0  0
   -2.2019   -0.6461    2.3432 H   0  0  0  0  0  0  0  0  0  0
   -0.4139    1.9392    2.1687 H   0  0  0  0  0  0  0  0  0  0
   -0.1589    0.4989    3.3204 H   0  0  0  0  0  0  0  0  0  0
   -1.6779    1.5648    3.4826 H   0  0  0  0  0  0  0  0  0  0
  1  2  1  0  0  0
  2  3  1  0  0  0
  3  4  1  0  0  0
  1  5  1  0  0  0
  1  6  1  0  0  0
  2  7  1  0  0  0
  2  8  1  0  0  0
  3  9  1  0  0  0
  3 10  1  0  0  0
  4 11  1  0  0  0
  4 12  1  0  0  0
  4 13  1  0  0  0
M  END
